*SPEF "IEEE 1481-1998"
*DESIGN "tau2015_crc32d16N"
*DATE "Thu Dec 18 14:39:52 2014"
*VENDOR "TAU 2015 Contest"
*PROGRAM "Benchmark Parasitic Generator"
*VERSION "0.0"
*DESIGN_FLOW "NETLIST_TYPE_VERILOG"
*DIVIDER /
*DELIMITER :
*BUS_DELIMITER [ ]
*T_UNIT 1 PS
*C_UNIT 1 FF
*R_UNIT 1 KOHM
*L_UNIT 1 UH

*D_NET newNet_120 1.4860
*CONN
*I newInst_120:o O
*I newInst_121:a I
*CAP
1 newInst_120:o 0.4292
2 newNet_120:1 0.4441
3 newNet_120:2 0.0985
4 newNet_120:3 0.2347
5 newInst_121:a 0.2795
*RES
2 newInst_120:o newNet_120:1 0.2792
3 newNet_120:1 newNet_120:2 0.3690
4 newNet_120:2 newNet_120:3 0.3712
5 newNet_120:3 newInst_121:a 0.0701
*END

*D_NET make_crc32d16_n_132 3.2421
*CONN
*I make_crc32d16_g2085:o O
*I make_crc32d16_g2056:b I
*I make_crc32d16_g2077:a I
*CAP
1 make_crc32d16_g2085:o 0.2611
2 make_crc32d16_n_132:1 0.4098
3 make_crc32d16_n_132:2 0.5009
4 make_crc32d16_n_132:3 0.2843
5 make_crc32d16_n_132:4 0.2878
6 make_crc32d16_n_132:5 0.1659
7 make_crc32d16_n_132:6 0.2742
8 make_crc32d16_g2056:b 0.3494
9 make_crc32d16_n_132:7 0.2161
10 make_crc32d16_n_132:8 0.1614
11 make_crc32d16_g2077:a 0.3312
*RES
2 make_crc32d16_g2085:o make_crc32d16_n_132:1 0.1485
3 make_crc32d16_n_132:1 make_crc32d16_n_132:2 0.3039
4 make_crc32d16_n_132:2 make_crc32d16_n_132:3 0.2110
5 make_crc32d16_n_132:3 make_crc32d16_n_132:4 0.4685
6 make_crc32d16_n_132:4 make_crc32d16_n_132:5 0.3070
7 make_crc32d16_n_132:5 make_crc32d16_n_132:6 0.3583
8 make_crc32d16_n_132:6 make_crc32d16_g2056:b 0.1395
9 make_crc32d16_n_132:1 make_crc32d16_n_132:7 0.3755
10 make_crc32d16_n_132:7 make_crc32d16_n_132:8 0.4644
11 make_crc32d16_n_132:8 make_crc32d16_g2077:a 0.4559
*END

*D_NET newNet_199 2.1187
*CONN
*I newInst_199:o O
*I make_crc32d16_crc_reg_7_:CK I
*CAP
1 newInst_199:o 0.3445
2 newNet_199:1 0.4232
3 newNet_199:2 0.3795
4 newNet_199:3 0.1162
5 newNet_199:4 0.1460
6 newNet_199:5 0.1071
7 newNet_199:6 0.1029
8 newNet_199:7 0.4958
9 make_crc32d16_crc_reg_7_:CK 0.0036
*RES
2 newInst_199:o newNet_199:1 0.0932
3 newNet_199:1 newNet_199:2 0.0289
4 newNet_199:2 newNet_199:3 0.4973
5 newNet_199:3 newNet_199:4 0.4276
6 newNet_199:4 newNet_199:5 0.4232
7 newNet_199:5 newNet_199:6 0.0050
8 newNet_199:6 newNet_199:7 0.3056
9 newNet_199:7 make_crc32d16_crc_reg_7_:CK 0.1268
*END

*D_NET newNet_134 3.3185
*CONN
*I newInst_134:o O
*I newInst_135:a I
*CAP
1 newInst_134:o 0.3573
2 newNet_134:1 0.3837
3 newNet_134:2 0.4693
4 newNet_134:3 0.2783
5 newNet_134:4 0.3051
6 newNet_134:5 0.4478
7 newNet_134:6 0.3850
8 newNet_134:7 0.3849
9 newInst_135:a 0.3071
*RES
2 newInst_134:o newNet_134:1 0.4720
3 newNet_134:1 newNet_134:2 0.4710
4 newNet_134:2 newNet_134:3 0.4965
5 newNet_134:3 newNet_134:4 0.4982
6 newNet_134:4 newNet_134:5 0.1819
7 newNet_134:5 newNet_134:6 0.3926
8 newNet_134:6 newNet_134:7 0.0100
9 newNet_134:7 newInst_135:a 0.1626
*END

*D_NET newNet_110 1.8242
*CONN
*I newInst_110:o O
*I newInst_111:a I
*CAP
1 newInst_110:o 0.3570
2 newNet_110:1 0.1556
3 newNet_110:2 0.4299
4 newNet_110:3 0.3545
5 newNet_110:4 0.0031
6 newNet_110:5 0.0255
7 newNet_110:6 0.3476
8 newNet_110:7 0.0212
9 newInst_111:a 0.1296
*RES
2 newInst_110:o newNet_110:1 0.3286
3 newNet_110:1 newNet_110:2 0.2041
4 newNet_110:2 newNet_110:3 0.4583
5 newNet_110:3 newNet_110:4 0.1933
6 newNet_110:4 newNet_110:5 0.4944
7 newNet_110:5 newNet_110:6 0.4365
8 newNet_110:6 newNet_110:7 0.2286
9 newNet_110:7 newInst_111:a 0.4011
*END

*D_NET crc32N_2 0.7619
*CONN
*I g63:o O
*P crc32N_2 O
*CAP
1 g63:o 0.0154
2 crc32N_2:1 0.1555
3 crc32N_2:2 0.2440
4 crc32N_2:3 0.0332
5 crc32N_2:4 0.0406
6 crc32N_2 0.2732
*RES
2 g63:o crc32N_2:1 0.0073
3 crc32N_2:1 crc32N_2:2 0.1308
4 crc32N_2:2 crc32N_2:3 0.1374
5 crc32N_2:3 crc32N_2:4 0.2909
6 crc32N_2:4 crc32N_2 0.3706
*END

*D_NET newNet_10 2.9286
*CONN
*I newInst_10:o O
*I newInst_11:a I
*CAP
1 newInst_10:o 0.1605
2 newNet_10:1 0.4140
3 newNet_10:2 0.2440
4 newNet_10:3 0.3775
5 newNet_10:4 0.2490
6 newNet_10:5 0.4403
7 newNet_10:6 0.1409
8 newNet_10:7 0.4913
9 newInst_11:a 0.4111
*RES
2 newInst_10:o newNet_10:1 0.2238
3 newNet_10:1 newNet_10:2 0.0811
4 newNet_10:2 newNet_10:3 0.3952
5 newNet_10:3 newNet_10:4 0.3221
6 newNet_10:4 newNet_10:5 0.4142
7 newNet_10:5 newNet_10:6 0.4057
8 newNet_10:6 newNet_10:7 0.3992
9 newNet_10:7 newInst_11:a 0.1673
*END

*D_NET make_crc32d16_n_272 16.4573
*CONN
*I make_crc32d16_g2276:o O
*I make_crc32d16_g2019:b I
*I make_crc32d16_g2053:b I
*I make_crc32d16_g2070:b I
*I make_crc32d16_g2192:a I
*I make_crc32d16_g2196:a I
*I make_crc32d16_g2214:b I
*CAP
1 make_crc32d16_g2276:o 0.4871
2 make_crc32d16_n_272:1 0.4125
3 make_crc32d16_n_272:2 0.0565
4 make_crc32d16_n_272:3 0.1285
5 make_crc32d16_n_272:4 0.0292
6 make_crc32d16_n_272:5 0.2926
7 make_crc32d16_n_272:6 0.4507
8 make_crc32d16_n_272:7 0.3356
9 make_crc32d16_n_272:8 0.3995
10 make_crc32d16_n_272:9 0.3845
11 make_crc32d16_n_272:10 0.4708
12 make_crc32d16_n_272:11 0.3056
13 make_crc32d16_g2019:b 0.3464
14 make_crc32d16_n_272:12 0.2805
15 make_crc32d16_n_272:13 0.1322
16 make_crc32d16_n_272:14 0.1905
17 make_crc32d16_n_272:15 0.4017
18 make_crc32d16_n_272:16 0.4680
19 make_crc32d16_g2053:b 0.2976
20 make_crc32d16_n_272:17 0.4131
21 make_crc32d16_n_272:18 0.3310
22 make_crc32d16_n_272:19 0.2621
23 make_crc32d16_n_272:20 0.4792
24 make_crc32d16_n_272:21 0.1808
25 make_crc32d16_n_272:22 0.0717
26 make_crc32d16_n_272:23 0.3990
27 make_crc32d16_n_272:24 0.4035
28 make_crc32d16_g2070:b 0.0219
29 make_crc32d16_n_272:25 0.4055
30 make_crc32d16_n_272:26 0.4519
31 make_crc32d16_n_272:27 0.4658
32 make_crc32d16_n_272:28 0.3690
33 make_crc32d16_n_272:29 0.4019
34 make_crc32d16_n_272:30 0.0632
35 make_crc32d16_n_272:31 0.2503
36 make_crc32d16_n_272:32 0.4700
37 make_crc32d16_g2192:a 0.3789
38 make_crc32d16_n_272:33 0.1267
39 make_crc32d16_n_272:34 0.3840
40 make_crc32d16_n_272:35 0.2434
41 make_crc32d16_n_272:36 0.3726
42 make_crc32d16_n_272:37 0.2980
43 make_crc32d16_n_272:38 0.2454
44 make_crc32d16_g2196:a 0.4670
45 make_crc32d16_n_272:39 0.4004
46 make_crc32d16_n_272:40 0.4814
47 make_crc32d16_n_272:41 0.1341
48 make_crc32d16_n_272:42 0.3915
49 make_crc32d16_n_272:43 0.0282
50 make_crc32d16_n_272:44 0.3089
51 make_crc32d16_n_272:45 0.0253
52 make_crc32d16_n_272:46 0.3105
53 make_crc32d16_n_272:47 0.1881
54 make_crc32d16_n_272:48 0.2034
55 make_crc32d16_g2214:b 0.1592
*RES
2 make_crc32d16_g2276:o make_crc32d16_n_272:1 0.0305
3 make_crc32d16_n_272:1 make_crc32d16_n_272:2 0.2383
4 make_crc32d16_n_272:2 make_crc32d16_n_272:3 0.4020
5 make_crc32d16_n_272:3 make_crc32d16_n_272:4 0.2529
6 make_crc32d16_n_272:4 make_crc32d16_n_272:5 0.2665
7 make_crc32d16_n_272:5 make_crc32d16_n_272:6 0.4354
8 make_crc32d16_n_272:6 make_crc32d16_n_272:7 0.1977
9 make_crc32d16_n_272:7 make_crc32d16_n_272:8 0.0788
10 make_crc32d16_n_272:8 make_crc32d16_n_272:9 0.3276
11 make_crc32d16_n_272:9 make_crc32d16_n_272:10 0.3833
12 make_crc32d16_n_272:10 make_crc32d16_n_272:11 0.3292
13 make_crc32d16_n_272:11 make_crc32d16_g2019:b 0.0716
14 make_crc32d16_n_272:5 make_crc32d16_n_272:12 0.2331
15 make_crc32d16_n_272:12 make_crc32d16_n_272:13 0.2927
16 make_crc32d16_n_272:13 make_crc32d16_n_272:14 0.3943
17 make_crc32d16_n_272:14 make_crc32d16_n_272:15 0.2211
18 make_crc32d16_n_272:15 make_crc32d16_n_272:16 0.1955
19 make_crc32d16_n_272:16 make_crc32d16_g2053:b 0.1868
20 make_crc32d16_n_272:2 make_crc32d16_n_272:17 0.0830
21 make_crc32d16_n_272:17 make_crc32d16_n_272:18 0.4539
22 make_crc32d16_n_272:18 make_crc32d16_n_272:19 0.1250
23 make_crc32d16_n_272:19 make_crc32d16_n_272:20 0.3196
24 make_crc32d16_n_272:20 make_crc32d16_n_272:21 0.4976
25 make_crc32d16_n_272:21 make_crc32d16_n_272:22 0.3591
26 make_crc32d16_n_272:22 make_crc32d16_n_272:23 0.2780
27 make_crc32d16_n_272:23 make_crc32d16_n_272:24 0.2022
28 make_crc32d16_n_272:24 make_crc32d16_g2070:b 0.1593
29 make_crc32d16_n_272:22 make_crc32d16_n_272:25 0.3545
30 make_crc32d16_n_272:25 make_crc32d16_n_272:26 0.1033
31 make_crc32d16_n_272:26 make_crc32d16_n_272:27 0.4316
32 make_crc32d16_n_272:27 make_crc32d16_n_272:28 0.1782
33 make_crc32d16_n_272:28 make_crc32d16_n_272:29 0.4734
34 make_crc32d16_n_272:29 make_crc32d16_n_272:30 0.0376
35 make_crc32d16_n_272:30 make_crc32d16_n_272:31 0.0972
36 make_crc32d16_n_272:31 make_crc32d16_n_272:32 0.3594
37 make_crc32d16_n_272:32 make_crc32d16_g2192:a 0.0525
38 make_crc32d16_n_272:21 make_crc32d16_n_272:33 0.1921
39 make_crc32d16_n_272:33 make_crc32d16_n_272:34 0.1376
40 make_crc32d16_n_272:34 make_crc32d16_n_272:35 0.4443
41 make_crc32d16_n_272:35 make_crc32d16_n_272:36 0.1288
42 make_crc32d16_n_272:36 make_crc32d16_n_272:37 0.3022
43 make_crc32d16_n_272:37 make_crc32d16_n_272:38 0.1405
44 make_crc32d16_n_272:38 make_crc32d16_g2196:a 0.0668
45 make_crc32d16_n_272:29 make_crc32d16_n_272:39 0.3147
46 make_crc32d16_n_272:39 make_crc32d16_n_272:40 0.2761
47 make_crc32d16_n_272:40 make_crc32d16_n_272:41 0.3643
48 make_crc32d16_n_272:41 make_crc32d16_n_272:42 0.2288
49 make_crc32d16_n_272:42 make_crc32d16_n_272:43 0.0666
50 make_crc32d16_n_272:43 make_crc32d16_n_272:44 0.3854
51 make_crc32d16_n_272:44 make_crc32d16_n_272:45 0.3580
52 make_crc32d16_n_272:45 make_crc32d16_n_272:46 0.3774
53 make_crc32d16_n_272:46 make_crc32d16_n_272:47 0.2731
54 make_crc32d16_n_272:47 make_crc32d16_n_272:48 0.1525
55 make_crc32d16_n_272:48 make_crc32d16_g2214:b 0.0518
*END

*D_NET newNet_166 2.7707
*CONN
*I newInst_166:o O
*I newInst_167:a I
*I newInst_180:a I
*CAP
1 newInst_166:o 0.2750
2 newNet_166:1 0.3368
3 newNet_166:2 0.1460
4 newNet_166:3 0.1923
5 newInst_167:a 0.1196
6 newNet_166:4 0.1991
7 newNet_166:5 0.2477
8 newNet_166:6 0.3549
9 newNet_166:7 0.0727
10 newNet_166:8 0.1363
11 newNet_166:9 0.0116
12 newNet_166:10 0.1464
13 newNet_166:11 0.2894
14 newNet_166:12 0.1240
15 newNet_166:13 0.0507
16 newInst_180:a 0.0681
*RES
2 newInst_166:o newNet_166:1 0.4796
3 newNet_166:1 newNet_166:2 0.1333
4 newNet_166:2 newNet_166:3 0.1472
5 newNet_166:3 newInst_167:a 0.2964
6 newNet_166:2 newNet_166:4 0.1105
7 newNet_166:4 newNet_166:5 0.3261
8 newNet_166:5 newNet_166:6 0.2338
9 newNet_166:6 newNet_166:7 0.3370
10 newNet_166:7 newNet_166:8 0.4204
11 newNet_166:8 newNet_166:9 0.3279
12 newNet_166:9 newNet_166:10 0.3529
13 newNet_166:10 newNet_166:11 0.3415
14 newNet_166:11 newNet_166:12 0.1073
15 newNet_166:12 newNet_166:13 0.4203
16 newNet_166:13 newInst_180:a 0.4879
*END

*D_NET make_crc32d16_n_73 2.4246
*CONN
*I make_crc32d16_g2199:o O
*I make_crc32d16_g2143:b I
*CAP
1 make_crc32d16_g2199:o 0.2154
2 make_crc32d16_n_73:1 0.1648
3 make_crc32d16_n_73:2 0.1855
4 make_crc32d16_n_73:3 0.0112
5 make_crc32d16_n_73:4 0.3530
6 make_crc32d16_n_73:5 0.1128
7 make_crc32d16_n_73:6 0.2239
8 make_crc32d16_n_73:7 0.0917
9 make_crc32d16_n_73:8 0.4230
10 make_crc32d16_n_73:9 0.1494
11 make_crc32d16_n_73:10 0.3290
12 make_crc32d16_n_73:11 0.1620
13 make_crc32d16_g2143:b 0.0029
*RES
2 make_crc32d16_g2199:o make_crc32d16_n_73:1 0.2883
3 make_crc32d16_n_73:1 make_crc32d16_n_73:2 0.1903
4 make_crc32d16_n_73:2 make_crc32d16_n_73:3 0.4381
5 make_crc32d16_n_73:3 make_crc32d16_n_73:4 0.3484
6 make_crc32d16_n_73:4 make_crc32d16_n_73:5 0.0801
7 make_crc32d16_n_73:5 make_crc32d16_n_73:6 0.1392
8 make_crc32d16_n_73:6 make_crc32d16_n_73:7 0.1891
9 make_crc32d16_n_73:7 make_crc32d16_n_73:8 0.0464
10 make_crc32d16_n_73:8 make_crc32d16_n_73:9 0.0364
11 make_crc32d16_n_73:9 make_crc32d16_n_73:10 0.0279
12 make_crc32d16_n_73:10 make_crc32d16_n_73:11 0.4104
13 make_crc32d16_n_73:11 make_crc32d16_g2143:b 0.0649
*END

*D_NET newNet_191 1.6718
*CONN
*I newInst_191:o O
*I newInst_192:a I
*CAP
1 newInst_191:o 0.1474
2 newNet_191:1 0.0452
3 newNet_191:2 0.2956
4 newNet_191:3 0.2084
5 newNet_191:4 0.2962
6 newNet_191:5 0.4802
7 newNet_191:6 0.1920
8 newInst_192:a 0.0067
*RES
2 newInst_191:o newNet_191:1 0.3452
3 newNet_191:1 newNet_191:2 0.0869
4 newNet_191:2 newNet_191:3 0.3290
5 newNet_191:3 newNet_191:4 0.2887
6 newNet_191:4 newNet_191:5 0.3622
7 newNet_191:5 newNet_191:6 0.0929
8 newNet_191:6 newInst_192:a 0.4724
*END

*D_NET newNet_130 3.2103
*CONN
*I newInst_130:o O
*I newInst_131:a I
*CAP
1 newInst_130:o 0.1595
2 newNet_130:1 0.4124
3 newNet_130:2 0.4822
4 newNet_130:3 0.3102
5 newNet_130:4 0.0426
6 newNet_130:5 0.1755
7 newNet_130:6 0.4742
8 newNet_130:7 0.3792
9 newNet_130:8 0.1881
10 newNet_130:9 0.1803
11 newNet_130:10 0.2306
12 newInst_131:a 0.1753
*RES
2 newInst_130:o newNet_130:1 0.4500
3 newNet_130:1 newNet_130:2 0.2914
4 newNet_130:2 newNet_130:3 0.3647
5 newNet_130:3 newNet_130:4 0.3532
6 newNet_130:4 newNet_130:5 0.1244
7 newNet_130:5 newNet_130:6 0.1292
8 newNet_130:6 newNet_130:7 0.0863
9 newNet_130:7 newNet_130:8 0.4728
10 newNet_130:8 newNet_130:9 0.0916
11 newNet_130:9 newNet_130:10 0.0928
12 newNet_130:10 newInst_131:a 0.3256
*END

*D_NET make_crc32d16_n_53 2.0114
*CONN
*I make_crc32d16_g2219:o O
*I make_crc32d16_g2173:b I
*CAP
1 make_crc32d16_g2219:o 0.1600
2 make_crc32d16_n_53:1 0.4787
3 make_crc32d16_n_53:2 0.1076
4 make_crc32d16_n_53:3 0.4606
5 make_crc32d16_n_53:4 0.3388
6 make_crc32d16_g2173:b 0.4657
*RES
2 make_crc32d16_g2219:o make_crc32d16_n_53:1 0.3595
3 make_crc32d16_n_53:1 make_crc32d16_n_53:2 0.2471
4 make_crc32d16_n_53:2 make_crc32d16_n_53:3 0.0832
5 make_crc32d16_n_53:3 make_crc32d16_n_53:4 0.0580
6 make_crc32d16_n_53:4 make_crc32d16_g2173:b 0.3736
*END

*D_NET make_crc32d16_n_186 1.4192
*CONN
*I make_crc32d16_g2019:o O
*I make_crc32d16_g2009:a I
*CAP
1 make_crc32d16_g2019:o 0.3644
2 make_crc32d16_n_186:1 0.1977
3 make_crc32d16_n_186:2 0.4694
4 make_crc32d16_g2009:a 0.3877
*RES
2 make_crc32d16_g2019:o make_crc32d16_n_186:1 0.3882
3 make_crc32d16_n_186:1 make_crc32d16_n_186:2 0.4950
4 make_crc32d16_n_186:2 make_crc32d16_g2009:a 0.0413
*END

*D_NET newNet_24 1.7127
*CONN
*I newInst_24:o O
*I newInst_25:a I
*I newInst_51:a I
*CAP
1 newInst_24:o 0.1989
2 newNet_24:1 0.4056
3 newNet_24:2 0.1996
4 newNet_24:3 0.0366
5 newNet_24:4 0.2657
6 newNet_24:5 0.0117
7 newInst_51:a 0.0724
8 newNet_24:6 0.0951
9 newNet_24:7 0.2266
10 newInst_25:a 0.2007
*RES
2 newInst_24:o newNet_24:1 0.3926
3 newNet_24:1 newNet_24:2 0.3808
4 newNet_24:2 newNet_24:3 0.0417
5 newNet_24:3 newNet_24:4 0.0237
6 newNet_24:4 newNet_24:5 0.0076
7 newNet_24:5 newInst_51:a 0.4304
8 newNet_24:3 newNet_24:6 0.0390
9 newNet_24:6 newNet_24:7 0.1413
10 newNet_24:7 newInst_25:a 0.1207
*END

*D_NET make_crc32d16_n_38 2.2206
*CONN
*I make_crc32d16_g2232:o O
*I make_crc32d16_g2202:b I
*CAP
1 make_crc32d16_g2232:o 0.4065
2 make_crc32d16_n_38:1 0.3513
3 make_crc32d16_n_38:2 0.1165
4 make_crc32d16_n_38:3 0.0986
5 make_crc32d16_n_38:4 0.2243
6 make_crc32d16_n_38:5 0.1286
7 make_crc32d16_n_38:6 0.4269
8 make_crc32d16_n_38:7 0.2482
9 make_crc32d16_g2202:b 0.2195
*RES
2 make_crc32d16_g2232:o make_crc32d16_n_38:1 0.1533
3 make_crc32d16_n_38:1 make_crc32d16_n_38:2 0.4091
4 make_crc32d16_n_38:2 make_crc32d16_n_38:3 0.2613
5 make_crc32d16_n_38:3 make_crc32d16_n_38:4 0.3587
6 make_crc32d16_n_38:4 make_crc32d16_n_38:5 0.1869
7 make_crc32d16_n_38:5 make_crc32d16_n_38:6 0.4974
8 make_crc32d16_n_38:6 make_crc32d16_n_38:7 0.3047
9 make_crc32d16_n_38:7 make_crc32d16_g2202:b 0.1200
*END

*D_NET make_crc32d16_n_41 1.1392
*CONN
*I make_crc32d16_g2229:o O
*I make_crc32d16_g2198:a I
*CAP
1 make_crc32d16_g2229:o 0.1210
2 make_crc32d16_n_41:1 0.1014
3 make_crc32d16_n_41:2 0.0283
4 make_crc32d16_n_41:3 0.2763
5 make_crc32d16_n_41:4 0.2945
6 make_crc32d16_g2198:a 0.3177
*RES
2 make_crc32d16_g2229:o make_crc32d16_n_41:1 0.2101
3 make_crc32d16_n_41:1 make_crc32d16_n_41:2 0.3390
4 make_crc32d16_n_41:2 make_crc32d16_n_41:3 0.2046
5 make_crc32d16_n_41:3 make_crc32d16_n_41:4 0.3404
6 make_crc32d16_n_41:4 make_crc32d16_g2198:a 0.1317
*END

*D_NET newNet_7 3.9898
*CONN
*I newInst_7:o O
*I newInst_8:a I
*I newInst_34:a I
*I newInst_63:a I
*CAP
1 newInst_7:o 0.2975
2 newNet_7:1 0.4518
3 newInst_34:a 0.3826
4 newNet_7:2 0.3028
5 newNet_7:3 0.2691
6 newNet_7:4 0.4591
7 newNet_7:5 0.1147
8 newNet_7:6 0.1152
9 newInst_8:a 0.4186
10 newNet_7:7 0.1941
11 newNet_7:8 0.3319
12 newNet_7:9 0.3734
13 newInst_63:a 0.2790
*RES
2 newInst_7:o newNet_7:1 0.1538
3 newNet_7:1 newInst_34:a 0.1454
4 newNet_7:1 newNet_7:2 0.0025
5 newNet_7:2 newNet_7:3 0.3086
6 newNet_7:3 newNet_7:4 0.0052
7 newNet_7:4 newNet_7:5 0.1652
8 newNet_7:5 newNet_7:6 0.2574
9 newNet_7:6 newInst_8:a 0.3146
10 newNet_7:4 newNet_7:7 0.4422
11 newNet_7:7 newNet_7:8 0.4326
12 newNet_7:8 newNet_7:9 0.1885
13 newNet_7:9 newInst_63:a 0.4623
*END

*D_NET newNet_170 0.5798
*CONN
*I newInst_170:o O
*I newInst_171:a I
*CAP
1 newInst_170:o 0.3048
2 newNet_170:1 0.1550
3 newInst_171:a 0.1200
*RES
2 newInst_170:o newNet_170:1 0.2056
3 newNet_170:1 newInst_171:a 0.4242
*END

*D_NET newNet_79 3.2803
*CONN
*I newInst_79:o O
*I newInst_80:a I
*CAP
1 newInst_79:o 0.3268
2 newNet_79:1 0.0841
3 newNet_79:2 0.3454
4 newNet_79:3 0.3395
5 newNet_79:4 0.4337
6 newNet_79:5 0.4022
7 newNet_79:6 0.3397
8 newNet_79:7 0.0371
9 newNet_79:8 0.2663
10 newNet_79:9 0.1384
11 newNet_79:10 0.1921
12 newInst_80:a 0.3750
*RES
2 newInst_79:o newNet_79:1 0.0934
3 newNet_79:1 newNet_79:2 0.0703
4 newNet_79:2 newNet_79:3 0.4722
5 newNet_79:3 newNet_79:4 0.0291
6 newNet_79:4 newNet_79:5 0.1440
7 newNet_79:5 newNet_79:6 0.0097
8 newNet_79:6 newNet_79:7 0.3259
9 newNet_79:7 newNet_79:8 0.4209
10 newNet_79:8 newNet_79:9 0.3860
11 newNet_79:9 newNet_79:10 0.4068
12 newNet_79:10 newInst_80:a 0.4680
*END

*D_NET make_crc32d16_n_153 2.3148
*CONN
*I make_crc32d16_g2055:o O
*I make_crc32d16_g2034:b I
*CAP
1 make_crc32d16_g2055:o 0.0856
2 make_crc32d16_n_153:1 0.2821
3 make_crc32d16_n_153:2 0.3900
4 make_crc32d16_n_153:3 0.0557
5 make_crc32d16_n_153:4 0.1253
6 make_crc32d16_n_153:5 0.2716
7 make_crc32d16_n_153:6 0.3735
8 make_crc32d16_n_153:7 0.1079
9 make_crc32d16_n_153:8 0.3323
10 make_crc32d16_g2034:b 0.2907
*RES
2 make_crc32d16_g2055:o make_crc32d16_n_153:1 0.0362
3 make_crc32d16_n_153:1 make_crc32d16_n_153:2 0.4966
4 make_crc32d16_n_153:2 make_crc32d16_n_153:3 0.4101
5 make_crc32d16_n_153:3 make_crc32d16_n_153:4 0.2702
6 make_crc32d16_n_153:4 make_crc32d16_n_153:5 0.2135
7 make_crc32d16_n_153:5 make_crc32d16_n_153:6 0.0419
8 make_crc32d16_n_153:6 make_crc32d16_n_153:7 0.2773
9 make_crc32d16_n_153:7 make_crc32d16_n_153:8 0.0903
10 make_crc32d16_n_153:8 make_crc32d16_g2034:b 0.0485
*END

*D_NET make_crc32d16_n_87 2.3566
*CONN
*I make_crc32d16_g2185:o O
*I make_crc32d16_g2169:a I
*CAP
1 make_crc32d16_g2185:o 0.4262
2 make_crc32d16_n_87:1 0.3114
3 make_crc32d16_n_87:2 0.3090
4 make_crc32d16_n_87:3 0.3972
5 make_crc32d16_n_87:4 0.4228
6 make_crc32d16_n_87:5 0.2443
7 make_crc32d16_g2169:a 0.2458
*RES
2 make_crc32d16_g2185:o make_crc32d16_n_87:1 0.3734
3 make_crc32d16_n_87:1 make_crc32d16_n_87:2 0.1567
4 make_crc32d16_n_87:2 make_crc32d16_n_87:3 0.1247
5 make_crc32d16_n_87:3 make_crc32d16_n_87:4 0.2439
6 make_crc32d16_n_87:4 make_crc32d16_n_87:5 0.2588
7 make_crc32d16_n_87:5 make_crc32d16_g2169:a 0.4474
*END

*D_NET d_12 7.7484
*CONN
*P d_12 I
*I make_crc32d16_g2110:a I
*I make_crc32d16_g2247:b I
*I make_crc32d16_g2249:b I
*I make_crc32d16_g2273:b I
*CAP
1 d_12 0.0472
2 d_12:1 0.1981
3 d_12:2 0.3275
4 d_12:3 0.0169
5 d_12:4 0.4026
6 d_12:5 0.4684
7 d_12:6 0.2490
8 d_12:7 0.0579
9 d_12:8 0.0423
10 d_12:9 0.2861
11 d_12:10 0.4278
12 make_crc32d16_g2249:b 0.3875
13 d_12:11 0.2438
14 d_12:12 0.2969
15 d_12:13 0.3091
16 d_12:14 0.5006
17 d_12:15 0.2264
18 d_12:16 0.3973
19 d_12:17 0.2044
20 d_12:18 0.1531
21 d_12:19 0.3886
22 d_12:20 0.2618
23 make_crc32d16_g2247:b 0.2468
24 d_12:21 0.1095
25 d_12:22 0.0212
26 d_12:23 0.1417
27 d_12:24 0.2190
28 d_12:25 0.4826
29 make_crc32d16_g2110:a 0.1138
30 d_12:26 0.0863
31 d_12:27 0.3102
32 make_crc32d16_g2273:b 0.1239
*RES
2 d_12 d_12:1 0.4796
3 d_12:1 d_12:2 0.3740
4 d_12:2 d_12:3 0.1554
5 d_12:3 d_12:4 0.0209
6 d_12:4 d_12:5 0.4380
7 d_12:5 d_12:6 0.4130
8 d_12:6 d_12:7 0.4990
9 d_12:7 d_12:8 0.2134
10 d_12:8 d_12:9 0.1115
11 d_12:9 d_12:10 0.4947
12 d_12:10 make_crc32d16_g2249:b 0.3666
13 d_12:6 d_12:11 0.4002
14 d_12:11 d_12:12 0.3652
15 d_12:12 d_12:13 0.1857
16 d_12:13 d_12:14 0.0562
17 d_12:14 d_12:15 0.0882
18 d_12:15 d_12:16 0.4386
19 d_12:16 d_12:17 0.2715
20 d_12:17 d_12:18 0.0199
21 d_12:18 d_12:19 0.4145
22 d_12:19 d_12:20 0.1459
23 d_12:20 make_crc32d16_g2247:b 0.1130
24 d_12:4 d_12:21 0.4033
25 d_12:21 d_12:22 0.3663
26 d_12:22 d_12:23 0.2540
27 d_12:23 d_12:24 0.0526
28 d_12:24 d_12:25 0.2388
29 d_12:25 make_crc32d16_g2110:a 0.1787
30 d_12:19 d_12:26 0.2473
31 d_12:26 d_12:27 0.0055
32 d_12:27 make_crc32d16_g2273:b 0.4935
*END

*D_NET newNet_178 1.6065
*CONN
*I newInst_178:o O
*I newInst_179:a I
*CAP
1 newInst_178:o 0.2143
2 newNet_178:1 0.0078
3 newNet_178:2 0.0970
4 newNet_178:3 0.4491
5 newNet_178:4 0.3890
6 newNet_178:5 0.1451
7 newNet_178:6 0.0801
8 newInst_179:a 0.2242
*RES
2 newInst_178:o newNet_178:1 0.2611
3 newNet_178:1 newNet_178:2 0.4369
4 newNet_178:2 newNet_178:3 0.0620
5 newNet_178:3 newNet_178:4 0.0602
6 newNet_178:4 newNet_178:5 0.2044
7 newNet_178:5 newNet_178:6 0.1540
8 newNet_178:6 newInst_179:a 0.1079
*END

*D_NET make_crc32d16_n_131 4.6683
*CONN
*I make_crc32d16_g2091:o O
*I make_crc32d16_g2046:b I
*I make_crc32d16_g2067:b I
*I make_crc32d16_g2075:b I
*CAP
1 make_crc32d16_g2091:o 0.3995
2 make_crc32d16_n_131:1 0.4218
3 make_crc32d16_n_131:2 0.0848
4 make_crc32d16_n_131:3 0.0266
5 make_crc32d16_n_131:4 0.0274
6 make_crc32d16_n_131:5 0.4218
7 make_crc32d16_n_131:6 0.2061
8 make_crc32d16_n_131:7 0.2110
9 make_crc32d16_n_131:8 0.4583
10 make_crc32d16_n_131:9 0.3985
11 make_crc32d16_n_131:10 0.0145
12 make_crc32d16_g2067:b 0.0725
13 make_crc32d16_n_131:11 0.1182
14 make_crc32d16_n_131:12 0.0327
15 make_crc32d16_n_131:13 0.0608
16 make_crc32d16_n_131:14 0.3721
17 make_crc32d16_g2046:b 0.4648
18 make_crc32d16_n_131:15 0.4486
19 make_crc32d16_n_131:16 0.0641
20 make_crc32d16_n_131:17 0.0138
21 make_crc32d16_n_131:18 0.0079
22 make_crc32d16_n_131:19 0.0204
23 make_crc32d16_n_131:20 0.2219
24 make_crc32d16_g2075:b 0.1001
*RES
2 make_crc32d16_g2091:o make_crc32d16_n_131:1 0.4492
3 make_crc32d16_n_131:1 make_crc32d16_n_131:2 0.3124
4 make_crc32d16_n_131:2 make_crc32d16_n_131:3 0.3685
5 make_crc32d16_n_131:3 make_crc32d16_n_131:4 0.4317
6 make_crc32d16_n_131:4 make_crc32d16_n_131:5 0.1801
7 make_crc32d16_n_131:5 make_crc32d16_n_131:6 0.2826
8 make_crc32d16_n_131:6 make_crc32d16_n_131:7 0.3420
9 make_crc32d16_n_131:7 make_crc32d16_n_131:8 0.0965
10 make_crc32d16_n_131:8 make_crc32d16_n_131:9 0.2555
11 make_crc32d16_n_131:9 make_crc32d16_n_131:10 0.1304
12 make_crc32d16_n_131:10 make_crc32d16_g2067:b 0.3675
13 make_crc32d16_n_131:6 make_crc32d16_n_131:11 0.2376
14 make_crc32d16_n_131:11 make_crc32d16_n_131:12 0.1146
15 make_crc32d16_n_131:12 make_crc32d16_n_131:13 0.3081
16 make_crc32d16_n_131:13 make_crc32d16_n_131:14 0.1439
17 make_crc32d16_n_131:14 make_crc32d16_g2046:b 0.0264
18 make_crc32d16_n_131:8 make_crc32d16_n_131:15 0.2747
19 make_crc32d16_n_131:15 make_crc32d16_n_131:16 0.1704
20 make_crc32d16_n_131:16 make_crc32d16_n_131:17 0.2303
21 make_crc32d16_n_131:17 make_crc32d16_n_131:18 0.0121
22 make_crc32d16_n_131:18 make_crc32d16_n_131:19 0.0620
23 make_crc32d16_n_131:19 make_crc32d16_n_131:20 0.0267
24 make_crc32d16_n_131:20 make_crc32d16_g2075:b 0.1278
*END

*D_NET newNet_117 2.1506
*CONN
*I newInst_117:o O
*I newInst_118:a I
*CAP
1 newInst_117:o 0.0248
2 newNet_117:1 0.0358
3 newNet_117:2 0.3094
4 newNet_117:3 0.1287
5 newNet_117:4 0.4113
6 newNet_117:5 0.0814
7 newNet_117:6 0.1953
8 newNet_117:7 0.4108
9 newNet_117:8 0.1019
10 newNet_117:9 0.0895
11 newNet_117:10 0.0869
12 newInst_118:a 0.2750
*RES
2 newInst_117:o newNet_117:1 0.4521
3 newNet_117:1 newNet_117:2 0.3192
4 newNet_117:2 newNet_117:3 0.2069
5 newNet_117:3 newNet_117:4 0.0579
6 newNet_117:4 newNet_117:5 0.2991
7 newNet_117:5 newNet_117:6 0.1155
8 newNet_117:6 newNet_117:7 0.3457
9 newNet_117:7 newNet_117:8 0.0715
10 newNet_117:8 newNet_117:9 0.2613
11 newNet_117:9 newNet_117:10 0.3996
12 newNet_117:10 newInst_118:a 0.0385
*END

*D_NET newNet_73 1.0552
*CONN
*I newInst_73:o O
*I newInst_74:a I
*CAP
1 newInst_73:o 0.3866
2 newNet_73:1 0.1364
3 newNet_73:2 0.1248
4 newInst_74:a 0.4075
*RES
2 newInst_73:o newNet_73:1 0.2102
3 newNet_73:1 newNet_73:2 0.4240
4 newNet_73:2 newInst_74:a 0.4607
*END

*D_NET newNet_63 4.9908
*CONN
*I newInst_63:o O
*I newInst_64:a I
*I newInst_117:a I
*CAP
1 newInst_63:o 0.4522
2 newNet_63:1 0.4379
3 newNet_63:2 0.1222
4 newNet_63:3 0.1484
5 newNet_63:4 0.2123
6 newNet_63:5 0.2933
7 newNet_63:6 0.4452
8 newNet_63:7 0.0163
9 newNet_63:8 0.0207
10 newNet_63:9 0.0848
11 newNet_63:10 0.3765
12 newInst_64:a 0.1464
13 newNet_63:11 0.0827
14 newNet_63:12 0.2937
15 newNet_63:13 0.1779
16 newNet_63:14 0.1690
17 newNet_63:15 0.2945
18 newNet_63:16 0.2386
19 newNet_63:17 0.4630
20 newNet_63:18 0.4384
21 newInst_117:a 0.0770
*RES
2 newInst_63:o newNet_63:1 0.4343
3 newNet_63:1 newNet_63:2 0.1858
4 newNet_63:2 newNet_63:3 0.4555
5 newNet_63:3 newNet_63:4 0.1225
6 newNet_63:4 newNet_63:5 0.1177
7 newNet_63:5 newNet_63:6 0.3493
8 newNet_63:6 newNet_63:7 0.3388
9 newNet_63:7 newNet_63:8 0.0046
10 newNet_63:8 newNet_63:9 0.2593
11 newNet_63:9 newNet_63:10 0.2026
12 newNet_63:10 newInst_64:a 0.3046
13 newNet_63:8 newNet_63:11 0.3787
14 newNet_63:11 newNet_63:12 0.2604
15 newNet_63:12 newNet_63:13 0.1900
16 newNet_63:13 newNet_63:14 0.2711
17 newNet_63:14 newNet_63:15 0.0522
18 newNet_63:15 newNet_63:16 0.4325
19 newNet_63:16 newNet_63:17 0.1348
20 newNet_63:17 newNet_63:18 0.4945
21 newNet_63:18 newInst_117:a 0.4093
*END

*D_NET crc32_27_ 5.6579
*CONN
*I make_crc32d16_crc_reg_27_:Q O
*I g60:a I
*I make_crc32d16_g2114:b I
*I make_crc32d16_g2277:a I
*CAP
1 make_crc32d16_crc_reg_27_:Q 0.2437
2 crc32_27_:1 0.1411
3 crc32_27_:2 0.2452
4 crc32_27_:3 0.2723
5 crc32_27_:4 0.2079
6 crc32_27_:5 0.2449
7 crc32_27_:6 0.0406
8 crc32_27_:7 0.0917
9 crc32_27_:8 0.0078
10 make_crc32d16_g2277:a 0.0227
11 crc32_27_:9 0.3672
12 crc32_27_:10 0.4629
13 crc32_27_:11 0.1157
14 crc32_27_:12 0.1901
15 crc32_27_:13 0.2138
16 crc32_27_:14 0.5008
17 crc32_27_:15 0.2979
18 crc32_27_:16 0.3428
19 crc32_27_:17 0.2325
20 crc32_27_:18 0.2733
21 crc32_27_:19 0.1266
22 make_crc32d16_g2114:b 0.3814
23 crc32_27_:20 0.2236
24 g60:a 0.4114
*RES
2 make_crc32d16_crc_reg_27_:Q crc32_27_:1 0.0264
3 crc32_27_:1 crc32_27_:2 0.0174
4 crc32_27_:2 crc32_27_:3 0.1906
5 crc32_27_:3 crc32_27_:4 0.1553
6 crc32_27_:4 crc32_27_:5 0.0937
7 crc32_27_:5 crc32_27_:6 0.2944
8 crc32_27_:6 crc32_27_:7 0.3987
9 crc32_27_:7 crc32_27_:8 0.0209
10 crc32_27_:8 make_crc32d16_g2277:a 0.1182
11 crc32_27_:2 crc32_27_:9 0.1363
12 crc32_27_:9 crc32_27_:10 0.3277
13 crc32_27_:10 crc32_27_:11 0.3144
14 crc32_27_:11 crc32_27_:12 0.4503
15 crc32_27_:12 crc32_27_:13 0.3676
16 crc32_27_:13 crc32_27_:14 0.1603
17 crc32_27_:14 crc32_27_:15 0.4423
18 crc32_27_:15 crc32_27_:16 0.1159
19 crc32_27_:16 crc32_27_:17 0.4527
20 crc32_27_:17 crc32_27_:18 0.1465
21 crc32_27_:18 crc32_27_:19 0.1463
22 crc32_27_:19 make_crc32d16_g2114:b 0.4621
23 crc32_27_:16 crc32_27_:20 0.0715
24 crc32_27_:20 g60:a 0.1546
*END

*D_NET newNet_193 0.9361
*CONN
*I newInst_193:o O
*I newInst_194:a I
*CAP
1 newInst_193:o 0.3951
2 newNet_193:1 0.0652
3 newNet_193:2 0.4099
4 newInst_194:a 0.0659
*RES
2 newInst_193:o newNet_193:1 0.4440
3 newNet_193:1 newNet_193:2 0.0647
4 newNet_193:2 newInst_194:a 0.2322
*END

*D_NET newNet_2 4.0583
*CONN
*I newInst_2:o O
*I newInst_3:a I
*CAP
1 newInst_2:o 0.3261
2 newNet_2:1 0.0185
3 newNet_2:2 0.3270
4 newNet_2:3 0.4812
5 newNet_2:4 0.1945
6 newNet_2:5 0.2035
7 newNet_2:6 0.4369
8 newNet_2:7 0.4217
9 newNet_2:8 0.3794
10 newNet_2:9 0.2502
11 newNet_2:10 0.4862
12 newNet_2:11 0.1521
13 newInst_3:a 0.3810
*RES
2 newInst_2:o newNet_2:1 0.3968
3 newNet_2:1 newNet_2:2 0.3049
4 newNet_2:2 newNet_2:3 0.0921
5 newNet_2:3 newNet_2:4 0.1658
6 newNet_2:4 newNet_2:5 0.4692
7 newNet_2:5 newNet_2:6 0.0685
8 newNet_2:6 newNet_2:7 0.0980
9 newNet_2:7 newNet_2:8 0.4773
10 newNet_2:8 newNet_2:9 0.1390
11 newNet_2:9 newNet_2:10 0.3418
12 newNet_2:10 newNet_2:11 0.4111
13 newNet_2:11 newInst_3:a 0.2104
*END

*D_NET newNet_25 2.6962
*CONN
*I newInst_25:o O
*I newInst_26:a I
*CAP
1 newInst_25:o 0.2386
2 newNet_25:1 0.3149
3 newNet_25:2 0.3812
4 newNet_25:3 0.3324
5 newNet_25:4 0.2188
6 newNet_25:5 0.0848
7 newNet_25:6 0.4176
8 newNet_25:7 0.3614
9 newInst_26:a 0.3464
*RES
2 newInst_25:o newNet_25:1 0.4927
3 newNet_25:1 newNet_25:2 0.1930
4 newNet_25:2 newNet_25:3 0.3603
5 newNet_25:3 newNet_25:4 0.4077
6 newNet_25:4 newNet_25:5 0.2424
7 newNet_25:5 newNet_25:6 0.4767
8 newNet_25:6 newNet_25:7 0.3627
9 newNet_25:7 newInst_26:a 0.0124
*END

*D_NET newNet_80 1.8771
*CONN
*I newInst_80:o O
*I newInst_81:a I
*CAP
1 newInst_80:o 0.0329
2 newNet_80:1 0.2280
3 newNet_80:2 0.1950
4 newNet_80:3 0.4905
5 newNet_80:4 0.3318
6 newNet_80:5 0.2133
7 newInst_81:a 0.3855
*RES
2 newInst_80:o newNet_80:1 0.1635
3 newNet_80:1 newNet_80:2 0.1616
4 newNet_80:2 newNet_80:3 0.4275
5 newNet_80:3 newNet_80:4 0.1695
6 newNet_80:4 newNet_80:5 0.1701
7 newNet_80:5 newInst_81:a 0.2126
*END

*D_NET make_crc32d16_n_47 5.9755
*CONN
*I make_crc32d16_g2244:o O
*I make_crc32d16_g2150:b I
*I make_crc32d16_g2151:b I
*I make_crc32d16_g2197:b I
*CAP
1 make_crc32d16_g2244:o 0.4367
2 make_crc32d16_n_47:1 0.0313
3 make_crc32d16_n_47:2 0.1217
4 make_crc32d16_n_47:3 0.0111
5 make_crc32d16_n_47:4 0.1222
6 make_crc32d16_n_47:5 0.0613
7 make_crc32d16_n_47:6 0.1692
8 make_crc32d16_n_47:7 0.4407
9 make_crc32d16_n_47:8 0.4978
10 make_crc32d16_g2151:b 0.2563
11 make_crc32d16_n_47:9 0.2138
12 make_crc32d16_n_47:10 0.4796
13 make_crc32d16_n_47:11 0.3806
14 make_crc32d16_n_47:12 0.4946
15 make_crc32d16_n_47:13 0.4608
16 make_crc32d16_n_47:14 0.4692
17 make_crc32d16_g2150:b 0.4766
18 make_crc32d16_n_47:15 0.4748
19 make_crc32d16_n_47:16 0.0806
20 make_crc32d16_n_47:17 0.0407
21 make_crc32d16_n_47:18 0.2069
22 make_crc32d16_g2197:b 0.0491
*RES
2 make_crc32d16_g2244:o make_crc32d16_n_47:1 0.2595
3 make_crc32d16_n_47:1 make_crc32d16_n_47:2 0.2603
4 make_crc32d16_n_47:2 make_crc32d16_n_47:3 0.2874
5 make_crc32d16_n_47:3 make_crc32d16_n_47:4 0.3072